<?xml version="1.0" encoding="UTF-8"?>

<!-- generated on 2026-01-15 21:54:20.616678 by Eclipse SUMO randomTrips.py v1_25_0+0000-ac6c5a6752d
<configuration>
    <net-file value="outputs/pune.net.xml"/>
    <route-file value="outputs/trips.trips.xml"/>
    <period value="1.8"/>
</configuration>
-->

<routes xmlns:xsi="http://www.w3.org/2001/XMLSchema-instance" xsi:noNamespaceSchemaLocation="http://sumo.dlr.de/xsd/routes_file.xsd">
    <trip id="0" depart="0.00" from="242052529#0" to="-1119804068#0"/>
    <trip id="1" depart="1.80" from="-475674952#0" to="-448904459#1"/>
    <trip id="2" depart="3.60" from="260482586" to="243909734#4"/>
    <trip id="3" depart="5.40" from="54937109#5" to="-236258546"/>
    <trip id="4" depart="7.20" from="-858996929#5" to="-1120252770#1"/>
    <trip id="5" depart="9.00" from="-253984580#0" to="1231602817#5"/>
    <trip id="6" depart="10.80" from="-1118809976" to="-260482580#0"/>
    <trip id="7" depart="12.60" from="242682736#2" to="211598952#2"/>
    <trip id="8" depart="14.40" from="-254641362#0" to="236559605#1"/>
    <trip id="9" depart="16.20" from="475684546#1" to="-106621434#3"/>
    <trip id="10" depart="18.00" from="475682211" to="253977897#6"/>
    <trip id="11" depart="19.80" from="-53836970#2" to="-244024563"/>
    <trip id="12" depart="21.60" from="856644292#1" to="-54516126#1"/>
    <trip id="13" depart="23.40" from="-1321811600" to="-236675868#0"/>
    <trip id="14" depart="25.20" from="53837279#4" to="237621722#4"/>
    <trip id="15" depart="27.00" from="475682223#3" to="260477838#2"/>
    <trip id="16" depart="28.80" from="1433240073#2" to="859158241"/>
    <trip id="17" depart="30.60" from="-54516122#4" to="236170466#5"/>
    <trip id="18" depart="32.40" from="475866312" to="240339035#13"/>
    <trip id="19" depart="34.20" from="53837984#0" to="236258551#1"/>
    <trip id="20" depart="36.00" from="253977905#1" to="-1207150807#4"/>
    <trip id="21" depart="37.80" from="-260136599#3" to="-476069427"/>
    <trip id="22" depart="39.60" from="-1207150379#0" to="-475665664#0"/>
    <trip id="23" depart="41.40" from="-172310817#9" to="-475763954"/>
    <trip id="24" depart="43.20" from="241490818" to="-825171721#1"/>
    <trip id="25" depart="45.00" from="-54033585#1" to="-436394709"/>
    <trip id="26" depart="46.80" from="-475639751#7" to="814119453#1"/>
    <trip id="27" depart="48.60" from="242681499#1" to="240145820#0"/>
    <trip id="28" depart="50.40" from="-242682769#0" to="260477835#0"/>
    <trip id="29" depart="52.20" from="-242681494#0" to="-858996929#6"/>
    <trip id="30" depart="54.00" from="860566895#0" to="242681481#7"/>
    <trip id="31" depart="55.80" from="236170465#3" to="244024607#5"/>
    <trip id="32" depart="57.60" from="53836913" to="475674946#4"/>
    <trip id="33" depart="59.40" from="-260471687" to="-1121167808#4"/>
    <trip id="34" depart="61.20" from="-475688335#0" to="-475684568"/>
    <trip id="35" depart="63.00" from="-253977936#2" to="816761508#2"/>
    <trip id="36" depart="64.80" from="54033475#0" to="-53837991#0"/>
    <trip id="37" depart="66.60" from="242682769#5" to="-860523107#4"/>
    <trip id="38" depart="68.40" from="669616601#1" to="1120022504"/>
    <trip id="39" depart="70.20" from="-475631352#2" to="-475682078#6"/>
    <trip id="40" depart="72.00" from="236178709#1" to="-475682223#2"/>
    <trip id="41" depart="73.80" from="236258556#1" to="54937413#10"/>
    <trip id="42" depart="75.60" from="-768238170" to="-448095170"/>
    <trip id="43" depart="77.40" from="895914745" to="1291643708#1"/>
    <trip id="44" depart="79.20" from="-1301512209" to="-1219436928#0"/>
    <trip id="45" depart="81.00" from="-236237498#2" to="241485125#8"/>
    <trip id="46" depart="82.80" from="475682093" to="1118287538"/>
    <trip id="47" depart="84.60" from="-1121167806" to="-859008593#2"/>
    <trip id="48" depart="86.40" from="895914731" to="1432864534#0"/>
    <trip id="49" depart="88.20" from="859139935#3" to="53837851#3"/>
    <trip id="50" depart="90.00" from="-1101051089#18" to="260136575#2"/>
    <trip id="51" depart="91.80" from="243909735#0" to="190904796#2"/>
    <trip id="52" depart="93.60" from="-475639751#5" to="242681487#3"/>
    <trip id="53" depart="95.40" from="-236237501#3" to="1118809976"/>
    <trip id="54" depart="97.20" from="106621383#1" to="828550388#2-AddedOffRampEdge"/>
    <trip id="55" depart="99.00" from="54033430" to="-475682227#4"/>
    <trip id="56" depart="100.80" from="1193601315#5" to="-253984570#0"/>
    <trip id="57" depart="102.60" from="668817450#6" to="54033272#13"/>
    <trip id="58" depart="104.40" from="-475682176#1" to="242681478#0"/>
    <trip id="59" depart="106.20" from="237621715#3" to="-244024550#5"/>
    <trip id="60" depart="108.00" from="448093851#0" to="191165957#3"/>
    <trip id="61" depart="109.80" from="475674944#4" to="1433225060"/>
    <trip id="62" depart="111.60" from="-1039997634" to="-54033290#0"/>
    <trip id="63" depart="113.40" from="-1118341177#1" to="813491275#1"/>
    <trip id="64" depart="115.20" from="54033590#2" to="475868621#1"/>
    <trip id="65" depart="117.00" from="-475684565#2" to="-1433225058"/>
    <trip id="66" depart="118.80" from="54033586#1" to="823468922#2"/>
    <trip id="67" depart="120.60" from="-1227095350" to="1184396795"/>
    <trip id="68" depart="122.40" from="-1182161376#1" to="448491616"/>
    <trip id="69" depart="124.20" from="448491626" to="-242682750#3"/>
    <trip id="70" depart="126.00" from="1119540403" to="233840277#9"/>
    <trip id="71" depart="127.80" from="-475631353#1" to="54033285#8"/>
    <trip id="72" depart="129.60" from="-859004340#0" to="-436397448#1"/>
    <trip id="73" depart="131.40" from="159539517#1" to="260477839#2"/>
    <trip id="74" depart="133.20" from="-246996012#2" to="-53837818#2"/>
    <trip id="75" depart="135.00" from="893005791#1" to="242682768#0"/>
    <trip id="76" depart="136.80" from="-860509267" to="1308780506#0"/>
    <trip id="77" depart="138.60" from="-236242742#0" to="-448904473"/>
    <trip id="78" depart="140.40" from="-53836912#4" to="236559589#1"/>
    <trip id="79" depart="142.20" from="-260471712" to="-448095176#1"/>
    <trip id="80" depart="144.00" from="-1182634812" to="241490842#0"/>
    <trip id="81" depart="145.80" from="-260471686" to="616283520"/>
    <trip id="82" depart="147.60" from="53837845" to="-236237498#3"/>
    <trip id="83" depart="149.40" from="-260482611" to="243909651#5"/>
    <trip id="84" depart="151.20" from="-253982167#1" to="-242682769#3"/>
    <trip id="85" depart="153.00" from="814119459" to="236237553#4"/>
    <trip id="86" depart="154.80" from="1118828501" to="475675016#1"/>
    <trip id="87" depart="156.60" from="475682227#0" to="-260136599#1"/>
    <trip id="88" depart="158.40" from="-1433225060" to="1118635267"/>
    <trip id="89" depart="160.20" from="-859004345" to="1120256274"/>
    <trip id="90" depart="162.00" from="260471694" to="243909705#1"/>
    <trip id="91" depart="163.80" from="-814119480" to="-54936393#1"/>
    <trip id="92" depart="165.60" from="53837984#0" to="-475682099#2"/>
    <trip id="93" depart="167.40" from="-243909735#0" to="1119548012#0"/>
    <trip id="94" depart="169.20" from="-858996929#4" to="-475763964#1"/>
    <trip id="95" depart="171.00" from="-436394724" to="813383808#1"/>
    <trip id="96" depart="172.80" from="-860584352" to="53837861#3"/>
    <trip id="97" depart="174.60" from="211598952#2" to="-1292066835"/>
    <trip id="98" depart="176.40" from="97699159" to="476077253#1"/>
    <trip id="99" depart="178.20" from="859015421" to="813491251#1-AddedOffRampEdge"/>
    <trip id="100" depart="180.00" from="53837375#10" to="-253977896#4"/>
    <trip id="101" depart="181.80" from="1130577565#1" to="-447681406#1"/>
    <trip id="102" depart="183.60" from="-813965784#3" to="-1433240073#2"/>
    <trip id="103" depart="185.40" from="-54516128#3" to="860045174"/>
    <trip id="104" depart="187.20" from="-475631355" to="475675008#5"/>
    <trip id="105" depart="189.00" from="106621557#6" to="1118293924"/>
    <trip id="106" depart="190.80" from="856644292#2" to="893005792#3"/>
    <trip id="107" depart="192.60" from="-241490865#2" to="-53836954#0"/>
    <trip id="108" depart="194.40" from="859008593#1" to="236258562#1"/>
    <trip id="109" depart="196.20" from="-1120255309" to="236559539#2"/>
    <trip id="110" depart="198.00" from="1203074865#0" to="53837441#4"/>
    <trip id="111" depart="199.80" from="-242681446#1" to="858195406"/>
    <trip id="112" depart="201.60" from="-1207150807#2" to="-255534643"/>
    <trip id="113" depart="203.40" from="236559600#1" to="243909717#3"/>
    <trip id="114" depart="205.20" from="-260477835#0" to="-242681464"/>
    <trip id="115" depart="207.00" from="54936393#1" to="-475682078#0"/>
    <trip id="116" depart="208.80" from="236559593#1" to="240350751#10"/>
    <trip id="117" depart="210.60" from="-858818926" to="236559537#4"/>
    <trip id="118" depart="212.40" from="1307713359" to="814119425#1"/>
    <trip id="119" depart="214.20" from="-253977895#6" to="254641393#1"/>
    <trip id="120" depart="216.00" from="-260625442" to="-860523107#6"/>
    <trip id="121" depart="217.80" from="243909650#13" to="-53837203#6"/>
    <trip id="122" depart="219.60" from="-475757814#4" to="436395569"/>
    <trip id="123" depart="221.40" from="-1183326409" to="1120017057"/>
    <trip id="124" depart="223.20" from="91658254#2" to="895914730"/>
    <trip id="125" depart="225.00" from="-1184387397" to="-446833690"/>
    <trip id="126" depart="226.80" from="-475631355" to="813965794#1"/>
    <trip id="127" depart="228.60" from="54514485#4" to="54033632#0"/>
    <trip id="128" depart="230.40" from="-54033572#4" to="-244024590"/>
    <trip id="129" depart="232.20" from="476069425" to="253977935#1"/>
    <trip id="130" depart="234.00" from="238749723#11" to="860518348#1"/>
    <trip id="131" depart="235.80" from="242682766#2" to="-106621567#1"/>
    <trip id="132" depart="237.60" from="475688300#1" to="-53837191#1"/>
    <trip id="133" depart="239.40" from="243266436#6" to="814119487"/>
    <trip id="134" depart="241.20" from="-236673134#2" to="-241490851"/>
    <trip id="135" depart="243.00" from="-236186194#0" to="236178683#2"/>
    <trip id="136" depart="244.80" from="-475666211" to="238749716#2"/>
    <trip id="137" depart="246.60" from="253984583#0" to="-369951752#3"/>
    <trip id="138" depart="248.40" from="241485140" to="-475682229"/>
    <trip id="139" depart="250.20" from="1154985760#8" to="615946586"/>
    <trip id="140" depart="252.00" from="53837186#1" to="-236559576#2"/>
    <trip id="141" depart="253.80" from="-859004345" to="-475763945#2"/>
    <trip id="142" depart="255.60" from="-1057088222" to="475665643"/>
    <trip id="143" depart="257.40" from="241490851" to="-475682218#0"/>
    <trip id="144" depart="259.20" from="263790598-AddedOffRampEdge" to="236170465#5"/>
    <trip id="145" depart="261.00" from="-859158243#0" to="-106622058#4"/>
    <trip id="146" depart="262.80" from="-1186708737" to="54514549#1"/>
    <trip id="147" depart="264.60" from="615946562" to="229919259#0"/>
    <trip id="148" depart="266.40" from="476069470#1" to="236559533#0"/>
    <trip id="149" depart="268.20" from="-240145887#2" to="-242682737#0"/>
    <trip id="150" depart="270.00" from="475682139#1" to="53837851#2"/>
    <trip id="151" depart="271.80" from="567652410#1" to="-436394718"/>
    <trip id="152" depart="273.60" from="-436394720#2" to="-240145798#2"/>
    <trip id="153" depart="275.40" from="475674952#2" to="54515036#8"/>
    <trip id="154" depart="277.20" from="-816763716#4" to="240596977"/>
    <trip id="155" depart="279.00" from="-241490863" to="813965752#0"/>
    <trip id="156" depart="280.80" from="53860878#1" to="859203547#1"/>
    <trip id="157" depart="282.60" from="475684562#1" to="54514493#4"/>
    <trip id="158" depart="284.40" from="-1118640984" to="263790598-AddedOnRampEdge"/>
    <trip id="159" depart="286.20" from="-476069470#0" to="813965759#5"/>
    <trip id="160" depart="288.00" from="475682176#2" to="53860871#0"/>
    <trip id="161" depart="289.80" from="475684562#0" to="-475684564#6"/>
    <trip id="162" depart="291.60" from="54033288#0" to="53837792#7"/>
    <trip id="163" depart="293.40" from="-254641393#3" to="475688307"/>
    <trip id="164" depart="295.20" from="1101051089#13" to="-53837521#7"/>
    <trip id="165" depart="297.00" from="475682125" to="-475631371#2"/>
    <trip id="166" depart="298.80" from="-1118638377" to="-260471727#1"/>
    <trip id="167" depart="300.60" from="-475868602" to="53860874#0"/>
    <trip id="168" depart="302.40" from="858996934" to="-475790377#0"/>
    <trip id="169" depart="304.20" from="242681445#2" to="-860584351#1"/>
    <trip id="170" depart="306.00" from="859530610#0" to="172310817#7"/>
    <trip id="171" depart="307.80" from="816327422" to="-241490850#0"/>
    <trip id="172" depart="309.60" from="859103990#3" to="-253984568"/>
    <trip id="173" depart="311.40" from="858794525#4" to="-475684552"/>
    <trip id="174" depart="313.20" from="-236186202#9" to="1118809967"/>
    <trip id="175" depart="315.00" from="237621671#0" to="1294649814"/>
    <trip id="176" depart="316.80" from="-54937332#5" to="236258547#0"/>
    <trip id="177" depart="318.60" from="-447685912#1" to="253982177#3"/>
    <trip id="178" depart="320.40" from="-1047018313#0" to="813481342#5"/>
    <trip id="179" depart="322.20" from="159539512#2" to="255534689#1"/>
    <trip id="180" depart="324.00" from="263790609" to="243909664"/>
    <trip id="181" depart="325.80" from="-54033272#17" to="-236186204#3"/>
    <trip id="182" depart="327.60" from="243266448#1" to="-54514485#4"/>
    <trip id="183" depart="329.40" from="-475688303#1" to="53837307#0"/>
    <trip id="184" depart="331.20" from="254641372#3" to="-53837226"/>
    <trip id="185" depart="333.00" from="-475684583" to="1066014144"/>
    <trip id="186" depart="334.80" from="-814119433" to="-53836912#0"/>
    <trip id="187" depart="336.60" from="-236258560#0" to="1105114945#6"/>
    <trip id="188" depart="338.40" from="816330343#0" to="243909738#2"/>
    <trip id="189" depart="340.20" from="615946550-AddedOnRampEdge" to="240145875#3"/>
    <trip id="190" depart="342.00" from="-475682197#4" to="233840271#0"/>
    <trip id="191" depart="343.80" from="-1039231378" to="-475868622"/>
    <trip id="192" depart="345.60" from="-859199970#1" to="236559522#0"/>
    <trip id="193" depart="347.40" from="242682767#9" to="1120255283"/>
    <trip id="194" depart="349.20" from="-860575149#0" to="-447681406#1"/>
    <trip id="195" depart="351.00" from="1118842980" to="615488827#1"/>
    <trip id="196" depart="352.80" from="475682139#0" to="-253977922#1"/>
    <trip id="197" depart="354.60" from="-1223375894" to="1301530302"/>
    <trip id="198" depart="356.40" from="241485125#3" to="-54515945#1"/>
    <trip id="199" depart="358.20" from="475757808" to="436395563"/>
    <trip id="200" depart="360.00" from="243909650#9" to="-448904471"/>
    <trip id="201" depart="361.80" from="-244024621#1" to="-1119554519#0"/>
    <trip id="202" depart="363.60" from="-436389544" to="1143813746#0"/>
    <trip id="203" depart="365.40" from="53837378#14" to="-236237501#6"/>
    <trip id="204" depart="367.20" from="-856617794#1" to="241485179#2"/>
    <trip id="205" depart="369.00" from="-244024567" to="253977895#0"/>
    <trip id="206" depart="370.80" from="1183303031#4" to="-475682061#0"/>
    <trip id="207" depart="372.60" from="242685505#0" to="-106621291#6"/>
    <trip id="208" depart="374.40" from="-236186188" to="1118303434#2"/>
    <trip id="209" depart="376.20" from="-243266436#4" to="856605483#0"/>
    <trip id="210" depart="378.00" from="1292315568" to="-1271645683#1"/>
    <trip id="211" depart="379.80" from="-436394713#2" to="53837324#2"/>
    <trip id="212" depart="381.60" from="106621973#3" to="475682183"/>
    <trip id="213" depart="383.40" from="243266463#1-AddedOnRampEdge" to="860523107#7"/>
    <trip id="214" depart="385.20" from="236559605#11" to="826589940#3"/>
    <trip id="215" depart="387.00" from="54937109#12" to="240145850#6"/>
    <trip id="216" depart="388.80" from="254641364#1" to="1231309505"/>
    <trip id="217" depart="390.60" from="475868609" to="233840270#9"/>
    <trip id="218" depart="392.40" from="54937401#1" to="42708545#2"/>
    <trip id="219" depart="394.20" from="-436394689" to="242681467"/>
    <trip id="220" depart="396.00" from="448491626" to="1321811600"/>
    <trip id="221" depart="397.80" from="240596979#2" to="-475757816#6"/>
    <trip id="222" depart="399.60" from="-1201618745#2" to="-475868595"/>
    <trip id="223" depart="401.40" from="-475665660" to="-53861887#1"/>
    <trip id="224" depart="403.20" from="165217010#0" to="-243266449#6"/>
    <trip id="225" depart="405.00" from="-260471729#1" to="253976057#3"/>
    <trip id="226" depart="406.80" from="253977925#4" to="-236178692#3"/>
    <trip id="227" depart="408.60" from="-816763721" to="210809969#3"/>
    <trip id="228" depart="410.40" from="-856646338" to="-436394688#10"/>
    <trip id="229" depart="412.20" from="-858862653#3" to="615946579#3"/>
    <trip id="230" depart="414.00" from="236258555#0" to="253976060#9"/>
    <trip id="231" depart="415.80" from="53837763#16" to="475631345#1"/>
    <trip id="232" depart="417.60" from="-54936238#22" to="-106621300#3"/>
    <trip id="233" depart="419.40" from="-53837763#6" to="447681404#0"/>
    <trip id="234" depart="421.20" from="53837523#2" to="828550381"/>
    <trip id="235" depart="423.00" from="-858818681#0" to="436394688#7"/>
    <trip id="236" depart="424.80" from="210788821#0" to="237621721#1"/>
    <trip id="237" depart="426.60" from="-254641362#1" to="-448095171"/>
    <trip id="238" depart="428.40" from="-859381669" to="-1120249535#0"/>
    <trip id="239" depart="430.20" from="-53836899#1" to="244024552#4"/>
    <trip id="240" depart="432.00" from="-816330343#0" to="-253976047#9"/>
    <trip id="241" depart="433.80" from="1118307306" to="-242682741#1"/>
    <trip id="242" depart="435.60" from="240145878#0" to="-1120016659"/>
    <trip id="243" depart="437.40" from="-673239841" to="236237514#0"/>
    <trip id="244" depart="439.20" from="-1118812206" to="242681495#6"/>
    <trip id="245" depart="441.00" from="-237621671#3" to="1120248135#1"/>
    <trip id="246" depart="442.80" from="-1120017480" to="-858996929#0"/>
    <trip id="247" depart="444.60" from="-253982113#4" to="-54033477#5"/>
    <trip id="248" depart="446.40" from="448086337#6" to="-858996929#0"/>
    <trip id="249" depart="448.20" from="436394691#3" to="475868624"/>
    <trip id="250" depart="450.00" from="-446833691" to="-236242736#0"/>
    <trip id="251" depart="451.80" from="-1118341177#0" to="191165957#4"/>
    <trip id="252" depart="453.60" from="979384586#1" to="-669063714#0"/>
    <trip id="253" depart="455.40" from="242682736#5" to="475674984#2"/>
    <trip id="254" depart="457.20" from="242682756#1" to="447681410"/>
    <trip id="255" depart="459.00" from="827014029#8" to="-260482587"/>
    <trip id="256" depart="460.80" from="-1118347178" to="-243909743"/>
    <trip id="257" depart="462.60" from="-236258554#2" to="243909654#2"/>
    <trip id="258" depart="464.40" from="236186201#2" to="-448087573"/>
    <trip id="259" depart="466.20" from="253976058#3" to="475631371#1"/>
    <trip id="260" depart="468.00" from="-242682754#1" to="240145794#6"/>
    <trip id="261" depart="469.80" from="393011370#1" to="-241490826#0"/>
    <trip id="262" depart="471.60" from="475757816#6" to="858862650#1"/>
    <trip id="263" depart="473.40" from="-236186202#4" to="-1120013159#0"/>
    <trip id="264" depart="475.20" from="-475688283#5" to="243909738#3"/>
    <trip id="265" depart="477.00" from="856644305" to="-860544560"/>
    <trip id="266" depart="478.80" from="253984560#1" to="-236237528#5"/>
    <trip id="267" depart="480.60" from="244024617#0" to="241485125#4"/>
    <trip id="268" depart="482.40" from="-210809970" to="475665653#3"/>
    <trip id="269" depart="484.20" from="53837378#8" to="237621674"/>
    <trip id="270" depart="486.00" from="-236242742#0" to="859535846#7"/>
    <trip id="271" depart="487.80" from="475674963#0" to="-666610789#0"/>
    <trip id="272" depart="489.60" from="-859171824#1" to="-856617793#1"/>
    <trip id="273" depart="491.40" from="1207429318#0" to="-54937219#0"/>
    <trip id="274" depart="493.20" from="53837378#12" to="475763958#2"/>
    <trip id="275" depart="495.00" from="-236186182#0" to="858195406"/>
    <trip id="276" depart="496.80" from="241490815#1" to="475866307#6"/>
    <trip id="277" depart="498.60" from="253977932#0" to="1118812206"/>
    <trip id="278" depart="500.40" from="260477826" to="858906135#2"/>
    <trip id="279" depart="502.20" from="-475665648#1" to="475684557"/>
    <trip id="280" depart="504.00" from="1465015850" to="1182664705"/>
    <trip id="281" depart="505.80" from="-859377509#1" to="260482586"/>
    <trip id="282" depart="507.60" from="-475656850" to="53837423#0"/>
    <trip id="283" depart="509.40" from="475868614#1" to="-236258543#2"/>
    <trip id="284" depart="511.20" from="54514517#1" to="-475675027#1"/>
    <trip id="285" depart="513.00" from="1118293921" to="240145834#3"/>
    <trip id="286" depart="514.80" from="-54516128#3" to="-1120043523"/>
    <trip id="287" depart="516.60" from="53837396#4" to="-254641362#0"/>
    <trip id="288" depart="518.40" from="-253982115#6" to="475682165#1"/>
    <trip id="289" depart="520.20" from="-53836970#3" to="54033663#6"/>
    <trip id="290" depart="522.00" from="253976066#0" to="-475761625#0"/>
    <trip id="291" depart="523.80" from="-1071866718" to="825171724"/>
    <trip id="292" depart="525.60" from="-1227095350" to="255534692#8"/>
    <trip id="293" depart="527.40" from="1154985760#9" to="448093857#2"/>
    <trip id="294" depart="529.20" from="244024617#0" to="242682748"/>
    <trip id="295" depart="531.00" from="1181721421" to="475682122"/>
    <trip id="296" depart="532.80" from="-1340636138" to="-448491618"/>
    <trip id="297" depart="534.60" from="244024627#0" to="-53837555"/>
    <trip id="298" depart="536.40" from="236258530" to="1130577562#7"/>
    <trip id="299" depart="538.20" from="1386921856" to="1118303434#6"/>
    <trip id="300" depart="540.00" from="342875922#1" to="-54514509#1"/>
    <trip id="301" depart="541.80" from="253977897#1" to="-475688280#0"/>
    <trip id="302" depart="543.60" from="-436397452" to="-242681473"/>
    <trip id="303" depart="545.40" from="-244024552#8" to="-242681460"/>
    <trip id="304" depart="547.20" from="1433239925#1" to="448492466#1"/>
    <trip id="305" depart="549.00" from="-243909683#2" to="-447685917"/>
    <trip id="306" depart="550.80" from="1123088555#0" to="260471720#0"/>
    <trip id="307" depart="552.60" from="859212203#1" to="1377471927"/>
    <trip id="308" depart="554.40" from="-475675016#2" to="-237621715#3"/>
    <trip id="309" depart="556.20" from="-244024562" to="-475631371#1"/>
    <trip id="310" depart="558.00" from="-243376508" to="-1118290185"/>
    <trip id="311" depart="559.80" from="1432764427#1" to="-475757816#2"/>
    <trip id="312" depart="561.60" from="859180319#1" to="236178685#1"/>
    <trip id="313" depart="563.40" from="253976046#3" to="-242681502#3"/>
    <trip id="314" depart="565.20" from="53861913#2" to="1196077146#1"/>
    <trip id="315" depart="567.00" from="54033290#3" to="236242755#6"/>
    <trip id="316" depart="568.80" from="1118635265" to="1118842982"/>
    <trip id="317" depart="570.60" from="-243909670" to="-1294653815"/>
    <trip id="318" depart="572.40" from="816761508#0" to="1156582850#3"/>
    <trip id="319" depart="574.20" from="475763950" to="-860627748"/>
    <trip id="320" depart="576.00" from="-1185942384" to="241485175#2"/>
    <trip id="321" depart="577.80" from="-1120248772" to="-243909712#0"/>
    <trip id="322" depart="579.60" from="236186187" to="-53837435"/>
    <trip id="323" depart="581.40" from="860957235#0" to="-242681444#0"/>
    <trip id="324" depart="583.20" from="448095184" to="238749725#2"/>
    <trip id="325" depart="585.00" from="475682078#4" to="-475631306#0"/>
    <trip id="326" depart="586.80" from="130725157#7" to="1119797796"/>
    <trip id="327" depart="588.60" from="-860584342#1" to="53837848#1"/>
    <trip id="328" depart="590.40" from="860584341" to="-53837521#9"/>
    <trip id="329" depart="592.20" from="240145873#1" to="240145832#0"/>
    <trip id="330" depart="594.00" from="262388702#1-AddedOffRampEdge" to="825171721#0"/>
    <trip id="331" depart="595.80" from="-253977919#4" to="-436395565#4"/>
    <trip id="332" depart="597.60" from="242690108#0" to="-244024585#14"/>
    <trip id="333" depart="599.40" from="-242685529#0" to="-236237526#2"/>
    <trip id="334" depart="601.20" from="-1057083022#1" to="1119797795"/>
    <trip id="335" depart="603.00" from="236559579#1" to="-479420880#0"/>
    <trip id="336" depart="604.80" from="-260471732#1" to="253982158#2"/>
    <trip id="337" depart="606.60" from="253977897#3" to="1120012319"/>
    <trip id="338" depart="608.40" from="244024585#12" to="813481331#2"/>
    <trip id="339" depart="610.20" from="475675024#0" to="240597025#2-AddedOffRampEdge"/>
    <trip id="340" depart="612.00" from="242690112#9" to="813965794#14"/>
    <trip id="341" depart="613.80" from="-859025806#0" to="211598951#4"/>
    <trip id="342" depart="615.60" from="242681495#5" to="619198970#2"/>
    <trip id="343" depart="617.40" from="475800430#1" to="-236237499#4"/>
    <trip id="344" depart="619.20" from="-242682735#5" to="-53837690#6"/>
    <trip id="345" depart="621.00" from="-475682094#1" to="-242681493#3"/>
    <trip id="346" depart="622.80" from="244024597#2" to="253977915"/>
    <trip id="347" depart="624.60" from="816763716#26" to="1219436934"/>
    <trip id="348" depart="626.40" from="1182666233" to="-236237551#3"/>
    <trip id="349" depart="628.20" from="-475794449#3" to="-475682121"/>
    <trip id="350" depart="630.00" from="-1302483760" to="858782816#0"/>
    <trip id="351" depart="631.80" from="476077254" to="236258515#4"/>
    <trip id="352" depart="633.60" from="828550375#1" to="97699177#4"/>
    <trip id="353" depart="635.40" from="243909650#20" to="-475684585#5"/>
    <trip id="354" depart="637.20" from="-1119546560" to="448086337#2"/>
    <trip id="355" depart="639.00" from="1118642295" to="242685507#3"/>
    <trip id="356" depart="640.80" from="690376086#0" to="-254641356#0"/>
    <trip id="357" depart="642.60" from="236258562#3" to="242052531#1"/>
    <trip id="358" depart="644.40" from="1182161376#2" to="-236559556"/>
    <trip id="359" depart="646.20" from="-53837526#0" to="-54515213#2"/>
    <trip id="360" depart="648.00" from="243376541#1" to="53837763#9"/>
    <trip id="361" depart="649.80" from="-475868628#3" to="253976049#3"/>
    <trip id="362" depart="651.60" from="-475682090" to="816763717#10"/>
    <trip id="363" depart="653.40" from="475684583" to="233840278#6"/>
    <trip id="364" depart="655.20" from="106621557#4" to="-53837989#0"/>
    <trip id="365" depart="657.00" from="-475794469" to="859025807"/>
    <trip id="366" depart="658.80" from="-816330339#7" to="1299543461"/>
    <trip id="367" depart="660.60" from="190904798#2" to="106621754#1"/>
    <trip id="368" depart="662.40" from="-243909711#3" to="-816763716#18"/>
    <trip id="369" depart="664.20" from="446825971" to="240597028#2"/>
    <trip id="370" depart="666.00" from="447685912#0" to="-369951752#2"/>
    <trip id="371" depart="667.80" from="210809982" to="813491261#0"/>
    <trip id="372" depart="669.60" from="-860509267" to="253977897#9"/>
    <trip id="373" depart="671.40" from="-236242745#3" to="859158242#0"/>
    <trip id="374" depart="673.20" from="237621715#2" to="-475674978"/>
    <trip id="375" depart="675.00" from="-242681459" to="236170458#2"/>
    <trip id="376" depart="676.80" from="233840269#4" to="-236559593#1"/>
    <trip id="377" depart="678.60" from="860627775#1" to="668817510#1"/>
    <trip id="378" depart="680.40" from="1101051089#7" to="-242052529#1"/>
    <trip id="379" depart="682.20" from="475868631" to="1214520680"/>
    <trip id="380" depart="684.00" from="253984577#2" to="1271645683#0"/>
    <trip id="381" depart="685.80" from="-475674942#0" to="476069470#1"/>
    <trip id="382" depart="687.60" from="859353252" to="-475675027#0"/>
    <trip id="383" depart="689.40" from="232879084#1" to="-859139935#1"/>
    <trip id="384" depart="691.20" from="813383808#0" to="127056185#1"/>
    <trip id="385" depart="693.00" from="54033653#2" to="53860871#0"/>
    <trip id="386" depart="694.80" from="-475674957#0" to="475682092#0"/>
    <trip id="387" depart="696.60" from="-856644297#0" to="813965794#4"/>
    <trip id="388" depart="698.40" from="1218753224#2" to="475761625#0"/>
    <trip id="389" depart="700.20" from="-475675016#0" to="-53837111#0"/>
    <trip id="390" depart="702.00" from="236559524#6" to="962367615"/>
    <trip id="391" depart="703.80" from="1159334204#3" to="-243909707#2"/>
    <trip id="392" depart="705.60" from="159539514#0" to="-54937414"/>
    <trip id="393" depart="707.40" from="233840269#0" to="210809976"/>
    <trip id="394" depart="709.20" from="106621567#0" to="-54033272#13"/>
    <trip id="395" depart="711.00" from="-243909717#3" to="253977896#5"/>
    <trip id="396" depart="712.80" from="236237528#6" to="-475674938#2"/>
    <trip id="397" depart="714.60" from="475665650#4" to="-1203074865#1"/>
    <trip id="398" depart="716.40" from="280739121" to="253982118#1"/>
    <trip id="399" depart="718.20" from="475684564#7" to="-859173421"/>
    <trip id="400" depart="720.00" from="243266443" to="475761627"/>
    <trip id="401" depart="721.80" from="859377511#1" to="1207150378#4"/>
    <trip id="402" depart="723.60" from="-1119513176" to="1219443128#4"/>
    <trip id="403" depart="725.40" from="236559539#2" to="53862128#6"/>
    <trip id="404" depart="727.20" from="54033368#3" to="1118842980"/>
    <trip id="405" depart="729.00" from="1319463109" to="1120014270"/>